
---------- Begin Simulation Statistics ----------
simSeconds                                   0.065507                       # Number of seconds simulated (Second)
simTicks                                  65506678272                       # Number of ticks simulated (Tick)
finalTick                                 65506678272                       # Number of ticks from beginning of simulation (restored from checkpoints and never reset) (Tick)
simFreq                                  1000000000000                       # The number of ticks per simulated second ((Tick/Second))
hostSeconds                                    828.60                       # Real time elapsed on the host (Second)
hostTickRate                                 79057528                       # The number of ticks simulated per host second (ticks/s) ((Tick/Second))
hostMemory                                     834412                       # Number of bytes of host memory used (Byte)
simInsts                                    430066426                       # Number of instructions simulated (Count)
simOps                                      647120883                       # Number of ops (including micro ops) simulated (Count)
hostInstRate                                   519031                       # Simulator instruction rate (inst/s) ((Count/Second))
hostOpRate                                     780986                       # Simulator op (including micro ops) rate (op/s) ((Count/Second))
system.clk_domain.clock                          1000                       # Clock period in ticks (Tick)
system.cpu0.numCycles                       177336923                       # Number of cpu cycles simulated (Cycle)
system.cpu0.cpi                              0.737116                       # CPI: cycles per instruction (core level) ((Cycle/Count))
system.cpu0.ipc                              1.356638                       # IPC: instructions per cycle (core level) ((Count/Cycle))
system.cpu0.numWorkItemsStarted                     0                       # Number of work items this cpu started (Count)
system.cpu0.numWorkItemsCompleted                   0                       # Number of work items this cpu completed (Count)
system.cpu0.instsAdded                      389888341                       # Number of instructions added to the IQ (excludes non-spec) (Count)
system.cpu0.nonSpecInstsAdded                   12036                       # Number of non-speculative instructions added to the IQ (Count)
system.cpu0.instsIssued                     383707736                       # Number of instructions issued (Count)
system.cpu0.squashedInstsIssued                 69837                       # Number of squashed instructions issued (Count)
system.cpu0.squashedInstsExamined            19650806                       # Number of squashed instructions iterated over during squash; mainly for profiling (Count)
system.cpu0.squashedOperandsExamined         34423605                       # Number of squashed operands that are examined and possibly removed from graph (Count)
system.cpu0.squashedNonSpecRemoved               4839                       # Number of squashed non-spec instructions that were removed (Count)
system.cpu0.numIssuedDist::samples          177039898                       # Number of insts issued each cycle (Count)
system.cpu0.numIssuedDist::mean              2.167352                       # Number of insts issued each cycle (Count)
system.cpu0.numIssuedDist::stdev             2.551825                       # Number of insts issued each cycle (Count)
system.cpu0.numIssuedDist::underflows               0      0.00%      0.00% # Number of insts issued each cycle (Count)
system.cpu0.numIssuedDist::0                 83290265     47.05%     47.05% # Number of insts issued each cycle (Count)
system.cpu0.numIssuedDist::1                 12119866      6.85%     53.89% # Number of insts issued each cycle (Count)
system.cpu0.numIssuedDist::2                 12561540      7.10%     60.99% # Number of insts issued each cycle (Count)
system.cpu0.numIssuedDist::3                 16584396      9.37%     70.35% # Number of insts issued each cycle (Count)
system.cpu0.numIssuedDist::4                 13076210      7.39%     77.74% # Number of insts issued each cycle (Count)
system.cpu0.numIssuedDist::5                 13831567      7.81%     85.55% # Number of insts issued each cycle (Count)
system.cpu0.numIssuedDist::6                 10685410      6.04%     91.59% # Number of insts issued each cycle (Count)
system.cpu0.numIssuedDist::7                  7988685      4.51%     96.10% # Number of insts issued each cycle (Count)
system.cpu0.numIssuedDist::8                  6901959      3.90%    100.00% # Number of insts issued each cycle (Count)
system.cpu0.numIssuedDist::overflows                0      0.00%    100.00% # Number of insts issued each cycle (Count)
system.cpu0.numIssuedDist::min_value                0                       # Number of insts issued each cycle (Count)
system.cpu0.numIssuedDist::max_value                8                       # Number of insts issued each cycle (Count)
system.cpu0.numIssuedDist::total            177039898                       # Number of insts issued each cycle (Count)
system.cpu0.statFuBusy::No_OpClass                  0      0.00%      0.00% # attempts to use FU when none available (Count)
system.cpu0.statFuBusy::IntAlu                1868665     77.68%     77.68% # attempts to use FU when none available (Count)
system.cpu0.statFuBusy::IntMult                     0      0.00%     77.68% # attempts to use FU when none available (Count)
system.cpu0.statFuBusy::IntDiv                      0      0.00%     77.68% # attempts to use FU when none available (Count)
system.cpu0.statFuBusy::FloatAdd                    0      0.00%     77.68% # attempts to use FU when none available (Count)
system.cpu0.statFuBusy::FloatCmp                    0      0.00%     77.68% # attempts to use FU when none available (Count)
system.cpu0.statFuBusy::FloatCvt                    0      0.00%     77.68% # attempts to use FU when none available (Count)
system.cpu0.statFuBusy::FloatMult                   0      0.00%     77.68% # attempts to use FU when none available (Count)
system.cpu0.statFuBusy::FloatMultAcc                0      0.00%     77.68% # attempts to use FU when none available (Count)
system.cpu0.statFuBusy::FloatDiv                    0      0.00%     77.68% # attempts to use FU when none available (Count)
system.cpu0.statFuBusy::FloatMisc                   0      0.00%     77.68% # attempts to use FU when none available (Count)
system.cpu0.statFuBusy::FloatSqrt                   0      0.00%     77.68% # attempts to use FU when none available (Count)
system.cpu0.statFuBusy::SimdAdd                     0      0.00%     77.68% # attempts to use FU when none available (Count)
system.cpu0.statFuBusy::SimdAddAcc                  0      0.00%     77.68% # attempts to use FU when none available (Count)
system.cpu0.statFuBusy::SimdAlu                  9460      0.39%     78.08% # attempts to use FU when none available (Count)
system.cpu0.statFuBusy::SimdCmp                    13      0.00%     78.08% # attempts to use FU when none available (Count)
system.cpu0.statFuBusy::SimdCvt                   177      0.01%     78.08% # attempts to use FU when none available (Count)
system.cpu0.statFuBusy::SimdMisc                 1396      0.06%     78.14% # attempts to use FU when none available (Count)
system.cpu0.statFuBusy::SimdMult                    0      0.00%     78.14% # attempts to use FU when none available (Count)
system.cpu0.statFuBusy::SimdMultAcc                 0      0.00%     78.14% # attempts to use FU when none available (Count)
system.cpu0.statFuBusy::SimdMatMultAcc              0      0.00%     78.14% # attempts to use FU when none available (Count)
system.cpu0.statFuBusy::SimdShift                   0      0.00%     78.14% # attempts to use FU when none available (Count)
system.cpu0.statFuBusy::SimdShiftAcc                0      0.00%     78.14% # attempts to use FU when none available (Count)
system.cpu0.statFuBusy::SimdDiv                     0      0.00%     78.14% # attempts to use FU when none available (Count)
system.cpu0.statFuBusy::SimdSqrt                    0      0.00%     78.14% # attempts to use FU when none available (Count)
system.cpu0.statFuBusy::SimdFloatAdd               24      0.00%     78.14% # attempts to use FU when none available (Count)
system.cpu0.statFuBusy::SimdFloatAlu                0      0.00%     78.14% # attempts to use FU when none available (Count)
system.cpu0.statFuBusy::SimdFloatCmp                0      0.00%     78.14% # attempts to use FU when none available (Count)
system.cpu0.statFuBusy::SimdFloatCvt                0      0.00%     78.14% # attempts to use FU when none available (Count)
system.cpu0.statFuBusy::SimdFloatDiv                4      0.00%     78.14% # attempts to use FU when none available (Count)
system.cpu0.statFuBusy::SimdFloatMisc               0      0.00%     78.14% # attempts to use FU when none available (Count)
system.cpu0.statFuBusy::SimdFloatMult          261230     10.86%     89.00% # attempts to use FU when none available (Count)
system.cpu0.statFuBusy::SimdFloatMultAcc            0      0.00%     89.00% # attempts to use FU when none available (Count)
system.cpu0.statFuBusy::SimdFloatMatMultAcc            0      0.00%     89.00% # attempts to use FU when none available (Count)
system.cpu0.statFuBusy::SimdFloatSqrt               0      0.00%     89.00% # attempts to use FU when none available (Count)
system.cpu0.statFuBusy::SimdReduceAdd               0      0.00%     89.00% # attempts to use FU when none available (Count)
system.cpu0.statFuBusy::SimdReduceAlu               0      0.00%     89.00% # attempts to use FU when none available (Count)
system.cpu0.statFuBusy::SimdReduceCmp               0      0.00%     89.00% # attempts to use FU when none available (Count)
system.cpu0.statFuBusy::SimdFloatReduceAdd            0      0.00%     89.00% # attempts to use FU when none available (Count)
system.cpu0.statFuBusy::SimdFloatReduceCmp            0      0.00%     89.00% # attempts to use FU when none available (Count)
system.cpu0.statFuBusy::SimdAes                     0      0.00%     89.00% # attempts to use FU when none available (Count)
system.cpu0.statFuBusy::SimdAesMix                  0      0.00%     89.00% # attempts to use FU when none available (Count)
system.cpu0.statFuBusy::SimdSha1Hash                0      0.00%     89.00% # attempts to use FU when none available (Count)
system.cpu0.statFuBusy::SimdSha1Hash2               0      0.00%     89.00% # attempts to use FU when none available (Count)
system.cpu0.statFuBusy::SimdSha256Hash              0      0.00%     89.00% # attempts to use FU when none available (Count)
system.cpu0.statFuBusy::SimdSha256Hash2             0      0.00%     89.00% # attempts to use FU when none available (Count)
system.cpu0.statFuBusy::SimdShaSigma2               0      0.00%     89.00% # attempts to use FU when none available (Count)
system.cpu0.statFuBusy::SimdShaSigma3               0      0.00%     89.00% # attempts to use FU when none available (Count)
system.cpu0.statFuBusy::SimdPredAlu                 0      0.00%     89.00% # attempts to use FU when none available (Count)
system.cpu0.statFuBusy::Matrix                      0      0.00%     89.00% # attempts to use FU when none available (Count)
system.cpu0.statFuBusy::MatrixMov                   0      0.00%     89.00% # attempts to use FU when none available (Count)
system.cpu0.statFuBusy::MatrixOP                    0      0.00%     89.00% # attempts to use FU when none available (Count)
system.cpu0.statFuBusy::MemRead                129578      5.39%     94.39% # attempts to use FU when none available (Count)
system.cpu0.statFuBusy::MemWrite                53454      2.22%     96.61% # attempts to use FU when none available (Count)
system.cpu0.statFuBusy::FloatMemRead            65568      2.73%     99.34% # attempts to use FU when none available (Count)
system.cpu0.statFuBusy::FloatMemWrite           15965      0.66%    100.00% # attempts to use FU when none available (Count)
system.cpu0.statFuBusy::IprAccess                   0      0.00%    100.00% # attempts to use FU when none available (Count)
system.cpu0.statFuBusy::InstPrefetch                0      0.00%    100.00% # attempts to use FU when none available (Count)
system.cpu0.statFuBusy::SimdUnitStrideLoad            0      0.00%    100.00% # attempts to use FU when none available (Count)
system.cpu0.statFuBusy::SimdUnitStrideStore            0      0.00%    100.00% # attempts to use FU when none available (Count)
system.cpu0.statFuBusy::SimdUnitStrideMaskLoad            0      0.00%    100.00% # attempts to use FU when none available (Count)
system.cpu0.statFuBusy::SimdUnitStrideMaskStore            0      0.00%    100.00% # attempts to use FU when none available (Count)
system.cpu0.statFuBusy::SimdStridedLoad             0      0.00%    100.00% # attempts to use FU when none available (Count)
system.cpu0.statFuBusy::SimdStridedStore            0      0.00%    100.00% # attempts to use FU when none available (Count)
system.cpu0.statFuBusy::SimdIndexedLoad             0      0.00%    100.00% # attempts to use FU when none available (Count)
system.cpu0.statFuBusy::SimdIndexedStore            0      0.00%    100.00% # attempts to use FU when none available (Count)
system.cpu0.statFuBusy::SimdWholeRegisterLoad            0      0.00%    100.00% # attempts to use FU when none available (Count)
system.cpu0.statFuBusy::SimdWholeRegisterStore            0      0.00%    100.00% # attempts to use FU when none available (Count)
system.cpu0.statFuBusy::SimdUnitStrideFaultOnlyFirstLoad            0      0.00%    100.00% # attempts to use FU when none available (Count)
system.cpu0.statFuBusy::SimdUnitStrideSegmentedLoad            0      0.00%    100.00% # attempts to use FU when none available (Count)
system.cpu0.statFuBusy::SimdUnitStrideSegmentedStore            0      0.00%    100.00% # attempts to use FU when none available (Count)
system.cpu0.statFuBusy::SimdExt                     0      0.00%    100.00% # attempts to use FU when none available (Count)
system.cpu0.statFuBusy::SimdFloatExt                0      0.00%    100.00% # attempts to use FU when none available (Count)
system.cpu0.statFuBusy::SimdConfig                  0      0.00%    100.00% # attempts to use FU when none available (Count)
system.cpu0.statIssuedInstType_0::No_OpClass       506077      0.13%      0.13% # Number of instructions issued per FU type, per thread (Count)
system.cpu0.statIssuedInstType_0::IntAlu    183182803     47.74%     47.87% # Number of instructions issued per FU type, per thread (Count)
system.cpu0.statIssuedInstType_0::IntMult       443136      0.12%     47.99% # Number of instructions issued per FU type, per thread (Count)
system.cpu0.statIssuedInstType_0::IntDiv       138248      0.04%     48.02% # Number of instructions issued per FU type, per thread (Count)
system.cpu0.statIssuedInstType_0::FloatAdd     34334542      8.95%     56.97% # Number of instructions issued per FU type, per thread (Count)
system.cpu0.statIssuedInstType_0::FloatCmp            0      0.00%     56.97% # Number of instructions issued per FU type, per thread (Count)
system.cpu0.statIssuedInstType_0::FloatCvt            0      0.00%     56.97% # Number of instructions issued per FU type, per thread (Count)
system.cpu0.statIssuedInstType_0::FloatMult            0      0.00%     56.97% # Number of instructions issued per FU type, per thread (Count)
system.cpu0.statIssuedInstType_0::FloatMultAcc            0      0.00%     56.97% # Number of instructions issued per FU type, per thread (Count)
system.cpu0.statIssuedInstType_0::FloatDiv            0      0.00%     56.97% # Number of instructions issued per FU type, per thread (Count)
system.cpu0.statIssuedInstType_0::FloatMisc            0      0.00%     56.97% # Number of instructions issued per FU type, per thread (Count)
system.cpu0.statIssuedInstType_0::FloatSqrt            0      0.00%     56.97% # Number of instructions issued per FU type, per thread (Count)
system.cpu0.statIssuedInstType_0::SimdAdd          378      0.00%     56.97% # Number of instructions issued per FU type, per thread (Count)
system.cpu0.statIssuedInstType_0::SimdAddAcc            0      0.00%     56.97% # Number of instructions issued per FU type, per thread (Count)
system.cpu0.statIssuedInstType_0::SimdAlu       227286      0.06%     57.03% # Number of instructions issued per FU type, per thread (Count)
system.cpu0.statIssuedInstType_0::SimdCmp           93      0.00%     57.03% # Number of instructions issued per FU type, per thread (Count)
system.cpu0.statIssuedInstType_0::SimdCvt        51084      0.01%     57.04% # Number of instructions issued per FU type, per thread (Count)
system.cpu0.statIssuedInstType_0::SimdMisc       161136      0.04%     57.09% # Number of instructions issued per FU type, per thread (Count)
system.cpu0.statIssuedInstType_0::SimdMult            0      0.00%     57.09% # Number of instructions issued per FU type, per thread (Count)
system.cpu0.statIssuedInstType_0::SimdMultAcc            0      0.00%     57.09% # Number of instructions issued per FU type, per thread (Count)
system.cpu0.statIssuedInstType_0::SimdMatMultAcc            0      0.00%     57.09% # Number of instructions issued per FU type, per thread (Count)
system.cpu0.statIssuedInstType_0::SimdShift          186      0.00%     57.09% # Number of instructions issued per FU type, per thread (Count)
system.cpu0.statIssuedInstType_0::SimdShiftAcc            0      0.00%     57.09% # Number of instructions issued per FU type, per thread (Count)
system.cpu0.statIssuedInstType_0::SimdDiv            0      0.00%     57.09% # Number of instructions issued per FU type, per thread (Count)
system.cpu0.statIssuedInstType_0::SimdSqrt            0      0.00%     57.09% # Number of instructions issued per FU type, per thread (Count)
system.cpu0.statIssuedInstType_0::SimdFloatAdd     41999905     10.95%     68.03% # Number of instructions issued per FU type, per thread (Count)
system.cpu0.statIssuedInstType_0::SimdFloatAlu            0      0.00%     68.03% # Number of instructions issued per FU type, per thread (Count)
system.cpu0.statIssuedInstType_0::SimdFloatCmp            2      0.00%     68.03% # Number of instructions issued per FU type, per thread (Count)
system.cpu0.statIssuedInstType_0::SimdFloatCvt       113474      0.03%     68.06% # Number of instructions issued per FU type, per thread (Count)
system.cpu0.statIssuedInstType_0::SimdFloatDiv        58079      0.02%     68.08% # Number of instructions issued per FU type, per thread (Count)
system.cpu0.statIssuedInstType_0::SimdFloatMisc            0      0.00%     68.08% # Number of instructions issued per FU type, per thread (Count)
system.cpu0.statIssuedInstType_0::SimdFloatMult     41510204     10.82%     78.90% # Number of instructions issued per FU type, per thread (Count)
system.cpu0.statIssuedInstType_0::SimdFloatMultAcc            0      0.00%     78.90% # Number of instructions issued per FU type, per thread (Count)
system.cpu0.statIssuedInstType_0::SimdFloatMatMultAcc            0      0.00%     78.90% # Number of instructions issued per FU type, per thread (Count)
system.cpu0.statIssuedInstType_0::SimdFloatSqrt         1967      0.00%     78.90% # Number of instructions issued per FU type, per thread (Count)
system.cpu0.statIssuedInstType_0::SimdReduceAdd            0      0.00%     78.90% # Number of instructions issued per FU type, per thread (Count)
system.cpu0.statIssuedInstType_0::SimdReduceAlu            0      0.00%     78.90% # Number of instructions issued per FU type, per thread (Count)
system.cpu0.statIssuedInstType_0::SimdReduceCmp            0      0.00%     78.90% # Number of instructions issued per FU type, per thread (Count)
system.cpu0.statIssuedInstType_0::SimdFloatReduceAdd            0      0.00%     78.90% # Number of instructions issued per FU type, per thread (Count)
system.cpu0.statIssuedInstType_0::SimdFloatReduceCmp            0      0.00%     78.90% # Number of instructions issued per FU type, per thread (Count)
system.cpu0.statIssuedInstType_0::SimdAes            0      0.00%     78.90% # Number of instructions issued per FU type, per thread (Count)
system.cpu0.statIssuedInstType_0::SimdAesMix            0      0.00%     78.90% # Number of instructions issued per FU type, per thread (Count)
system.cpu0.statIssuedInstType_0::SimdSha1Hash            0      0.00%     78.90% # Number of instructions issued per FU type, per thread (Count)
system.cpu0.statIssuedInstType_0::SimdSha1Hash2            0      0.00%     78.90% # Number of instructions issued per FU type, per thread (Count)
system.cpu0.statIssuedInstType_0::SimdSha256Hash            0      0.00%     78.90% # Number of instructions issued per FU type, per thread (Count)
system.cpu0.statIssuedInstType_0::SimdSha256Hash2            0      0.00%     78.90% # Number of instructions issued per FU type, per thread (Count)
system.cpu0.statIssuedInstType_0::SimdShaSigma2            0      0.00%     78.90% # Number of instructions issued per FU type, per thread (Count)
system.cpu0.statIssuedInstType_0::SimdShaSigma3            0      0.00%     78.90% # Number of instructions issued per FU type, per thread (Count)
system.cpu0.statIssuedInstType_0::SimdPredAlu            0      0.00%     78.90% # Number of instructions issued per FU type, per thread (Count)
system.cpu0.statIssuedInstType_0::Matrix            0      0.00%     78.90% # Number of instructions issued per FU type, per thread (Count)
system.cpu0.statIssuedInstType_0::MatrixMov            0      0.00%     78.90% # Number of instructions issued per FU type, per thread (Count)
system.cpu0.statIssuedInstType_0::MatrixOP            0      0.00%     78.90% # Number of instructions issued per FU type, per thread (Count)
system.cpu0.statIssuedInstType_0::MemRead     22510490      5.87%     84.76% # Number of instructions issued per FU type, per thread (Count)
system.cpu0.statIssuedInstType_0::MemWrite      9045009      2.36%     87.12% # Number of instructions issued per FU type, per thread (Count)
system.cpu0.statIssuedInstType_0::FloatMemRead     36632842      9.55%     96.67% # Number of instructions issued per FU type, per thread (Count)
system.cpu0.statIssuedInstType_0::FloatMemWrite     12790795      3.33%    100.00% # Number of instructions issued per FU type, per thread (Count)
system.cpu0.statIssuedInstType_0::IprAccess            0      0.00%    100.00% # Number of instructions issued per FU type, per thread (Count)
system.cpu0.statIssuedInstType_0::InstPrefetch            0      0.00%    100.00% # Number of instructions issued per FU type, per thread (Count)
system.cpu0.statIssuedInstType_0::SimdUnitStrideLoad            0      0.00%    100.00% # Number of instructions issued per FU type, per thread (Count)
system.cpu0.statIssuedInstType_0::SimdUnitStrideStore            0      0.00%    100.00% # Number of instructions issued per FU type, per thread (Count)
system.cpu0.statIssuedInstType_0::SimdUnitStrideMaskLoad            0      0.00%    100.00% # Number of instructions issued per FU type, per thread (Count)
system.cpu0.statIssuedInstType_0::SimdUnitStrideMaskStore            0      0.00%    100.00% # Number of instructions issued per FU type, per thread (Count)
system.cpu0.statIssuedInstType_0::SimdStridedLoad            0      0.00%    100.00% # Number of instructions issued per FU type, per thread (Count)
system.cpu0.statIssuedInstType_0::SimdStridedStore            0      0.00%    100.00% # Number of instructions issued per FU type, per thread (Count)
system.cpu0.statIssuedInstType_0::SimdIndexedLoad            0      0.00%    100.00% # Number of instructions issued per FU type, per thread (Count)
system.cpu0.statIssuedInstType_0::SimdIndexedStore            0      0.00%    100.00% # Number of instructions issued per FU type, per thread (Count)
system.cpu0.statIssuedInstType_0::SimdWholeRegisterLoad            0      0.00%    100.00% # Number of instructions issued per FU type, per thread (Count)
system.cpu0.statIssuedInstType_0::SimdWholeRegisterStore            0      0.00%    100.00% # Number of instructions issued per FU type, per thread (Count)
system.cpu0.statIssuedInstType_0::SimdUnitStrideFaultOnlyFirstLoad            0      0.00%    100.00% # Number of instructions issued per FU type, per thread (Count)
system.cpu0.statIssuedInstType_0::SimdUnitStrideSegmentedLoad            0      0.00%    100.00% # Number of instructions issued per FU type, per thread (Count)
system.cpu0.statIssuedInstType_0::SimdUnitStrideSegmentedStore            0      0.00%    100.00% # Number of instructions issued per FU type, per thread (Count)
system.cpu0.statIssuedInstType_0::SimdExt            0      0.00%    100.00% # Number of instructions issued per FU type, per thread (Count)
system.cpu0.statIssuedInstType_0::SimdFloatExt            0      0.00%    100.00% # Number of instructions issued per FU type, per thread (Count)
system.cpu0.statIssuedInstType_0::SimdConfig            0      0.00%    100.00% # Number of instructions issued per FU type, per thread (Count)
system.cpu0.statIssuedInstType_0::total     383707736                       # Number of instructions issued per FU type, per thread (Count)
system.cpu0.issueRate                        2.163722                       # Inst issue rate ((Count/Cycle))
system.cpu0.fuBusy                            2405534                       # FU busy when requested (Count)
system.cpu0.fuBusyRate                       0.006269                       # FU busy rate (busy events/executed inst) ((Count/Count))
system.cpu0.intInstQueueReads               533427543                       # Number of integer instruction queue reads (Count)
system.cpu0.intInstQueueWrites              200989725                       # Number of integer instruction queue writes (Count)
system.cpu0.intInstQueueWakeupAccesses      175700098                       # Number of integer instruction queue wakeup accesses (Count)
system.cpu0.fpInstQueueReads                413503198                       # Number of floating instruction queue reads (Count)
system.cpu0.fpInstQueueWrites               208569020                       # Number of floating instruction queue writes (Count)
system.cpu0.fpInstQueueWakeupAccesses       206290998                       # Number of floating instruction queue wakeup accesses (Count)
system.cpu0.vecInstQueueReads                       0                       # Number of vector instruction queue reads (Count)
system.cpu0.vecInstQueueWrites                      0                       # Number of vector instruction queue writes (Count)
system.cpu0.vecInstQueueWakeupAccesses              0                       # Number of vector instruction queue wakeup accesses (Count)
system.cpu0.intAluAccesses                  178678998                       # Number of integer alu accesses (Count)
system.cpu0.fpAluAccesses                   206928195                       # Number of floating point alu accesses (Count)
system.cpu0.vecAluAccesses                          0                       # Number of vector alu accesses (Count)
system.cpu0.numSquashedInsts                   877559                       # Number of squashed instructions skipped in execute (Count)
system.cpu0.numSwp                                  0                       # Number of swp insts executed (Count)
system.cpu0.timesIdled                           1734                       # Number of times that the entire CPU went into an idle state and unscheduled itself (Count)
system.cpu0.idleCycles                         297025                       # Total number of cycles that the CPU has spent unscheduled due to idling (Cycle)
system.cpu0.quiesceCycles                     6155174                       # Total number of cycles that CPU has spent quiesced or waiting for an interrupt (Cycle)
system.cpu0.MemDepUnit__0.insertedLoads      60457756                       # Number of loads inserted to the mem dependence unit. (Count)
system.cpu0.MemDepUnit__0.insertedStores     22652544                       # Number of stores inserted to the mem dependence unit. (Count)
system.cpu0.MemDepUnit__0.conflictingLoads     14983540                       # Number of conflicting loads. (Count)
system.cpu0.MemDepUnit__0.conflictingStores     12723138                       # Number of conflicting stores. (Count)
system.cpu0.MemDepUnit__1.insertedLoads             0                       # Number of loads inserted to the mem dependence unit. (Count)
system.cpu0.MemDepUnit__1.insertedStores            0                       # Number of stores inserted to the mem dependence unit. (Count)
system.cpu0.MemDepUnit__1.conflictingLoads            0                       # Number of conflicting loads. (Count)
system.cpu0.MemDepUnit__1.conflictingStores            0                       # Number of conflicting stores. (Count)
system.cpu0.MemDepUnit__2.insertedLoads             0                       # Number of loads inserted to the mem dependence unit. (Count)
system.cpu0.MemDepUnit__2.insertedStores            0                       # Number of stores inserted to the mem dependence unit. (Count)
system.cpu0.MemDepUnit__2.conflictingLoads            0                       # Number of conflicting loads. (Count)
system.cpu0.MemDepUnit__2.conflictingStores            0                       # Number of conflicting stores. (Count)
system.cpu0.MemDepUnit__3.insertedLoads             0                       # Number of loads inserted to the mem dependence unit. (Count)
system.cpu0.MemDepUnit__3.insertedStores            0                       # Number of stores inserted to the mem dependence unit. (Count)
system.cpu0.MemDepUnit__3.conflictingLoads            0                       # Number of conflicting loads. (Count)
system.cpu0.MemDepUnit__3.conflictingStores            0                       # Number of conflicting stores. (Count)
system.cpu0.branchPred.lookups_0::NoBranch            0      0.00%      0.00% # Number of BP lookups (Count)
system.cpu0.branchPred.lookups_0::Return       368090      1.64%      1.64% # Number of BP lookups (Count)
system.cpu0.branchPred.lookups_0::CallDirect       368866      1.64%      3.28% # Number of BP lookups (Count)
system.cpu0.branchPred.lookups_0::CallIndirect          528      0.00%      3.28% # Number of BP lookups (Count)
system.cpu0.branchPred.lookups_0::DirectCond     21293295     94.66%     97.94% # Number of BP lookups (Count)
system.cpu0.branchPred.lookups_0::DirectUncond       450486      2.00%     99.95% # Number of BP lookups (Count)
system.cpu0.branchPred.lookups_0::IndirectCond            0      0.00%     99.95% # Number of BP lookups (Count)
system.cpu0.branchPred.lookups_0::IndirectUncond        12277      0.05%    100.00% # Number of BP lookups (Count)
system.cpu0.branchPred.lookups_0::total      22493542                       # Number of BP lookups (Count)
system.cpu0.branchPred.squashes_0::NoBranch            0      0.00%      0.00% # Number of branches that got squashed (completely removed) as an earlier branch was mispredicted. (Count)
system.cpu0.branchPred.squashes_0::Return        31226      0.90%      0.90% # Number of branches that got squashed (completely removed) as an earlier branch was mispredicted. (Count)
system.cpu0.branchPred.squashes_0::CallDirect        32336      0.93%      1.83% # Number of branches that got squashed (completely removed) as an earlier branch was mispredicted. (Count)
system.cpu0.branchPred.squashes_0::CallIndirect          189      0.01%      1.84% # Number of branches that got squashed (completely removed) as an earlier branch was mispredicted. (Count)
system.cpu0.branchPred.squashes_0::DirectCond      3300547     95.22%     97.05% # Number of branches that got squashed (completely removed) as an earlier branch was mispredicted. (Count)
system.cpu0.branchPred.squashes_0::DirectUncond        98759      2.85%     99.90% # Number of branches that got squashed (completely removed) as an earlier branch was mispredicted. (Count)
system.cpu0.branchPred.squashes_0::IndirectCond            0      0.00%     99.90% # Number of branches that got squashed (completely removed) as an earlier branch was mispredicted. (Count)
system.cpu0.branchPred.squashes_0::IndirectUncond         3331      0.10%    100.00% # Number of branches that got squashed (completely removed) as an earlier branch was mispredicted. (Count)
system.cpu0.branchPred.squashes_0::total      3466388                       # Number of branches that got squashed (completely removed) as an earlier branch was mispredicted. (Count)
system.cpu0.branchPred.corrected_0::NoBranch            0      0.00%      0.00% # Number of branches that got corrected but not yet commited. Branches get corrected by decode or after execute. Also a branch misprediction can be detected out-of-order. Therefore, a corrected branch might not end up beeing committed in case an even earlier branch was mispredicted (Count)
system.cpu0.branchPred.corrected_0::Return           23      0.01%      0.01% # Number of branches that got corrected but not yet commited. Branches get corrected by decode or after execute. Also a branch misprediction can be detected out-of-order. Therefore, a corrected branch might not end up beeing committed in case an even earlier branch was mispredicted (Count)
system.cpu0.branchPred.corrected_0::CallDirect          812      0.23%      0.23% # Number of branches that got corrected but not yet commited. Branches get corrected by decode or after execute. Also a branch misprediction can be detected out-of-order. Therefore, a corrected branch might not end up beeing committed in case an even earlier branch was mispredicted (Count)
system.cpu0.branchPred.corrected_0::CallIndirect          111      0.03%      0.27% # Number of branches that got corrected but not yet commited. Branches get corrected by decode or after execute. Also a branch misprediction can be detected out-of-order. Therefore, a corrected branch might not end up beeing committed in case an even earlier branch was mispredicted (Count)
system.cpu0.branchPred.corrected_0::DirectCond       352064     99.06%     99.33% # Number of branches that got corrected but not yet commited. Branches get corrected by decode or after execute. Also a branch misprediction can be detected out-of-order. Therefore, a corrected branch might not end up beeing committed in case an even earlier branch was mispredicted (Count)
system.cpu0.branchPred.corrected_0::DirectUncond         2141      0.60%     99.93% # Number of branches that got corrected but not yet commited. Branches get corrected by decode or after execute. Also a branch misprediction can be detected out-of-order. Therefore, a corrected branch might not end up beeing committed in case an even earlier branch was mispredicted (Count)
system.cpu0.branchPred.corrected_0::IndirectCond            0      0.00%     99.93% # Number of branches that got corrected but not yet commited. Branches get corrected by decode or after execute. Also a branch misprediction can be detected out-of-order. Therefore, a corrected branch might not end up beeing committed in case an even earlier branch was mispredicted (Count)
system.cpu0.branchPred.corrected_0::IndirectUncond          249      0.07%    100.00% # Number of branches that got corrected but not yet commited. Branches get corrected by decode or after execute. Also a branch misprediction can be detected out-of-order. Therefore, a corrected branch might not end up beeing committed in case an even earlier branch was mispredicted (Count)
system.cpu0.branchPred.corrected_0::total       355400                       # Number of branches that got corrected but not yet commited. Branches get corrected by decode or after execute. Also a branch misprediction can be detected out-of-order. Therefore, a corrected branch might not end up beeing committed in case an even earlier branch was mispredicted (Count)
system.cpu0.branchPred.earlyResteers_0::NoBranch            0                       # Number of branches that got redirected after decode. (Count)
system.cpu0.branchPred.earlyResteers_0::Return            0                       # Number of branches that got redirected after decode. (Count)
system.cpu0.branchPred.earlyResteers_0::CallDirect            0                       # Number of branches that got redirected after decode. (Count)
system.cpu0.branchPred.earlyResteers_0::CallIndirect            0                       # Number of branches that got redirected after decode. (Count)
system.cpu0.branchPred.earlyResteers_0::DirectCond            0                       # Number of branches that got redirected after decode. (Count)
system.cpu0.branchPred.earlyResteers_0::DirectUncond            0                       # Number of branches that got redirected after decode. (Count)
system.cpu0.branchPred.earlyResteers_0::IndirectCond            0                       # Number of branches that got redirected after decode. (Count)
system.cpu0.branchPred.earlyResteers_0::IndirectUncond            0                       # Number of branches that got redirected after decode. (Count)
system.cpu0.branchPred.earlyResteers_0::total            0                       # Number of branches that got redirected after decode. (Count)
system.cpu0.branchPred.committed_0::NoBranch            0      0.00%      0.00% # Number of branches finally committed  (Count)
system.cpu0.branchPred.committed_0::Return       336864      1.77%      1.77% # Number of branches finally committed  (Count)
system.cpu0.branchPred.committed_0::CallDirect       336530      1.77%      3.54% # Number of branches finally committed  (Count)
system.cpu0.branchPred.committed_0::CallIndirect          339      0.00%      3.54% # Number of branches finally committed  (Count)
system.cpu0.branchPred.committed_0::DirectCond     17992747     94.56%     98.10% # Number of branches finally committed  (Count)
system.cpu0.branchPred.committed_0::DirectUncond       351727      1.85%     99.95% # Number of branches finally committed  (Count)
system.cpu0.branchPred.committed_0::IndirectCond            0      0.00%     99.95% # Number of branches finally committed  (Count)
system.cpu0.branchPred.committed_0::IndirectUncond         8946      0.05%    100.00% # Number of branches finally committed  (Count)
system.cpu0.branchPred.committed_0::total     19027153                       # Number of branches finally committed  (Count)
system.cpu0.branchPred.mispredicted_0::NoBranch            0      0.00%      0.00% # Number of committed branches that were mispredicted. (Count)
system.cpu0.branchPred.mispredicted_0::Return            9      0.00%      0.00% # Number of committed branches that were mispredicted. (Count)
system.cpu0.branchPred.mispredicted_0::CallDirect          422      0.13%      0.13% # Number of committed branches that were mispredicted. (Count)
system.cpu0.branchPred.mispredicted_0::CallIndirect           99      0.03%      0.16% # Number of committed branches that were mispredicted. (Count)
system.cpu0.branchPred.mispredicted_0::DirectCond       323766     99.29%     99.45% # Number of committed branches that were mispredicted. (Count)
system.cpu0.branchPred.mispredicted_0::DirectUncond         1590      0.49%     99.94% # Number of committed branches that were mispredicted. (Count)
system.cpu0.branchPred.mispredicted_0::IndirectCond            0      0.00%     99.94% # Number of committed branches that were mispredicted. (Count)
system.cpu0.branchPred.mispredicted_0::IndirectUncond          206      0.06%    100.00% # Number of committed branches that were mispredicted. (Count)
system.cpu0.branchPred.mispredicted_0::total       326092                       # Number of committed branches that were mispredicted. (Count)
system.cpu0.branchPred.targetProvider_0::NoTarget      6119986     27.21%     27.21% # The component providing the target for taken branches (Count)
system.cpu0.branchPred.targetProvider_0::BTB     15996177     71.11%     98.32% # The component providing the target for taken branches (Count)
system.cpu0.branchPred.targetProvider_0::RAS       368090      1.64%     99.96% # The component providing the target for taken branches (Count)
system.cpu0.branchPred.targetProvider_0::Indirect         9289      0.04%    100.00% # The component providing the target for taken branches (Count)
system.cpu0.branchPred.targetProvider_0::total     22493542                       # The component providing the target for taken branches (Count)
system.cpu0.branchPred.targetWrong_0::NoBranch       140194     39.45%     39.45% # Number of branches where the target was incorrect or not available at prediction time. (Count)
system.cpu0.branchPred.targetWrong_0::Return       215091     60.53%     99.99% # Number of branches where the target was incorrect or not available at prediction time. (Count)
system.cpu0.branchPred.targetWrong_0::CallDirect           23      0.01%     99.99% # Number of branches where the target was incorrect or not available at prediction time. (Count)
system.cpu0.branchPred.targetWrong_0::CallIndirect           19      0.01%    100.00% # Number of branches where the target was incorrect or not available at prediction time. (Count)
system.cpu0.branchPred.targetWrong_0::DirectCond            0      0.00%    100.00% # Number of branches where the target was incorrect or not available at prediction time. (Count)
system.cpu0.branchPred.targetWrong_0::DirectUncond            0      0.00%    100.00% # Number of branches where the target was incorrect or not available at prediction time. (Count)
system.cpu0.branchPred.targetWrong_0::IndirectCond            0      0.00%    100.00% # Number of branches where the target was incorrect or not available at prediction time. (Count)
system.cpu0.branchPred.targetWrong_0::IndirectUncond            0      0.00%    100.00% # Number of branches where the target was incorrect or not available at prediction time. (Count)
system.cpu0.branchPred.targetWrong_0::total       355327                       # Number of branches where the target was incorrect or not available at prediction time. (Count)
system.cpu0.branchPred.condPredicted         21293295                       # Number of conditional branches predicted (Count)
system.cpu0.branchPred.condPredictedTaken     15186120                       # Number of conditional branches predicted as taken (Count)
system.cpu0.branchPred.condIncorrect           355400                       # Number of conditional branches incorrect (Count)
system.cpu0.branchPred.predTakenBTBMiss          1910                       # Number of branches predicted taken but missed in BTB (Count)
system.cpu0.branchPred.NotTakenMispredicted       144724                       # Number branches predicted 'not taken' but turned out to be taken (Count)
system.cpu0.branchPred.TakenMispredicted       210676                       # Number branches predicted taken but are actually not taken (Count)
system.cpu0.branchPred.BTBLookups            22493542                       # Number of BTB lookups (Count)
system.cpu0.branchPred.BTBUpdates              144341                       # Number of BTB updates (Count)
system.cpu0.branchPred.BTBHits               20569668                       # Number of BTB hits (Count)
system.cpu0.branchPred.BTBHitRatio           0.914470                       # BTB Hit Ratio (Ratio)
system.cpu0.branchPred.BTBMispredicted           2802                       # Number BTB mispredictions. No target found or target wrong (Count)
system.cpu0.branchPred.indirectLookups          12805                       # Number of indirect predictor lookups. (Count)
system.cpu0.branchPred.indirectHits              9289                       # Number of indirect target hits. (Count)
system.cpu0.branchPred.indirectMisses            3516                       # Number of indirect misses. (Count)
system.cpu0.branchPred.indirectMispredicted            0                       # Number of mispredicted indirect branches. (Count)
system.cpu0.branchPred.btb.lookups::NoBranch            0      0.00%      0.00% # Number of BTB lookups (Count)
system.cpu0.branchPred.btb.lookups::Return       368090      1.64%      1.64% # Number of BTB lookups (Count)
system.cpu0.branchPred.btb.lookups::CallDirect       368866      1.64%      3.28% # Number of BTB lookups (Count)
system.cpu0.branchPred.btb.lookups::CallIndirect          528      0.00%      3.28% # Number of BTB lookups (Count)
system.cpu0.branchPred.btb.lookups::DirectCond     21293295     94.66%     97.94% # Number of BTB lookups (Count)
system.cpu0.branchPred.btb.lookups::DirectUncond       450486      2.00%     99.95% # Number of BTB lookups (Count)
system.cpu0.branchPred.btb.lookups::IndirectCond            0      0.00%     99.95% # Number of BTB lookups (Count)
system.cpu0.branchPred.btb.lookups::IndirectUncond        12277      0.05%    100.00% # Number of BTB lookups (Count)
system.cpu0.branchPred.btb.lookups::total     22493542                       # Number of BTB lookups (Count)
system.cpu0.branchPred.btb.misses::NoBranch            0      0.00%      0.00% # Number of BTB misses (Count)
system.cpu0.branchPred.btb.misses::Return       367954     19.13%     19.13% # Number of BTB misses (Count)
system.cpu0.branchPred.btb.misses::CallDirect         1219      0.06%     19.19% # Number of BTB misses (Count)
system.cpu0.branchPred.btb.misses::CallIndirect          528      0.03%     19.22% # Number of BTB misses (Count)
system.cpu0.branchPred.btb.misses::DirectCond      1541148     80.11%     99.32% # Number of BTB misses (Count)
system.cpu0.branchPred.btb.misses::DirectUncond          748      0.04%     99.36% # Number of BTB misses (Count)
system.cpu0.branchPred.btb.misses::IndirectCond            0      0.00%     99.36% # Number of BTB misses (Count)
system.cpu0.branchPred.btb.misses::IndirectUncond        12277      0.64%    100.00% # Number of BTB misses (Count)
system.cpu0.branchPred.btb.misses::total      1923874                       # Number of BTB misses (Count)
system.cpu0.branchPred.btb.updates::NoBranch            0      0.00%      0.00% # Number of BTB updates (Count)
system.cpu0.branchPred.btb.updates::Return            0      0.00%      0.00% # Number of BTB updates (Count)
system.cpu0.branchPred.btb.updates::CallDirect          812      0.56%      0.56% # Number of BTB updates (Count)
system.cpu0.branchPred.btb.updates::CallIndirect            0      0.00%      0.56% # Number of BTB updates (Count)
system.cpu0.branchPred.btb.updates::DirectCond       141388     97.95%     98.52% # Number of BTB updates (Count)
system.cpu0.branchPred.btb.updates::DirectUncond         2141      1.48%    100.00% # Number of BTB updates (Count)
system.cpu0.branchPred.btb.updates::IndirectCond            0      0.00%    100.00% # Number of BTB updates (Count)
system.cpu0.branchPred.btb.updates::IndirectUncond            0      0.00%    100.00% # Number of BTB updates (Count)
system.cpu0.branchPred.btb.updates::total       144341                       # Number of BTB updates (Count)
system.cpu0.branchPred.btb.mispredict::NoBranch            0      0.00%      0.00% # Number of BTB mispredictions. No target found or target wrong. (Count)
system.cpu0.branchPred.btb.mispredict::Return            0      0.00%      0.00% # Number of BTB mispredictions. No target found or target wrong. (Count)
system.cpu0.branchPred.btb.mispredict::CallDirect          812      0.56%      0.56% # Number of BTB mispredictions. No target found or target wrong. (Count)
system.cpu0.branchPred.btb.mispredict::CallIndirect            0      0.00%      0.56% # Number of BTB mispredictions. No target found or target wrong. (Count)
system.cpu0.branchPred.btb.mispredict::DirectCond       141388     97.95%     98.52% # Number of BTB mispredictions. No target found or target wrong. (Count)
system.cpu0.branchPred.btb.mispredict::DirectUncond         2141      1.48%    100.00% # Number of BTB mispredictions. No target found or target wrong. (Count)
system.cpu0.branchPred.btb.mispredict::IndirectCond            0      0.00%    100.00% # Number of BTB mispredictions. No target found or target wrong. (Count)
system.cpu0.branchPred.btb.mispredict::IndirectUncond            0      0.00%    100.00% # Number of BTB mispredictions. No target found or target wrong. (Count)
system.cpu0.branchPred.btb.mispredict::total       144341                       # Number of BTB mispredictions. No target found or target wrong. (Count)
system.cpu0.branchPred.btb.power_state.pwrStateResidencyTicks::UNDEFINED  65506678272                       # Cumulative time (in ticks) in various power states (Tick)
system.cpu0.branchPred.indirectBranchPred.lookups        12805                       # Number of lookups (Count)
system.cpu0.branchPred.indirectBranchPred.hits         9289                       # Number of hits of a tag (Count)
system.cpu0.branchPred.indirectBranchPred.misses         3516                       # Number of misses (Count)
system.cpu0.branchPred.indirectBranchPred.targetRecords          360                       # Number of targets that where recorded/installed in the cache (Count)
system.cpu0.branchPred.indirectBranchPred.indirectRecords        13165                       # Number of indirect branches/calls recorded in the indirect hist (Count)
system.cpu0.branchPred.indirectBranchPred.speculativeOverflows            1                       # Number of times more than the allowed capacity for speculative branches/calls where in flight and destroy the path history (Count)
system.cpu0.branchPred.ras.pushes              400620                       # Number of times a PC was pushed onto the RAS (Count)
system.cpu0.branchPred.ras.pops                400615                       # Number of times a PC was poped from the RAS (Count)
system.cpu0.branchPred.ras.squashes             63751                       # Number of times the stack operation was squashed due to wrong speculation. (Count)
system.cpu0.branchPred.ras.used                336864                       # Number of times the RAS is the provider (Count)
system.cpu0.branchPred.ras.correct             336855                       # Number of times the RAS is the provider and the prediction is correct (Count)
system.cpu0.branchPred.ras.incorrect                9                       # Number of times the RAS is the provider and the prediction is wrong (Count)
system.cpu0.commit.commitSquashedInsts       19535252                       # The number of squashed insts skipped by commit (Count)
system.cpu0.commit.commitNonSpecStalls           7197                       # The number of times commit has been forced to stall to communicate backwards (Count)
system.cpu0.commit.branchMispredicts           349714                       # The number of times a branch was mispredicted (Count)
system.cpu0.commit.numCommittedDist::samples    174364169                       # Number of insts commited each cycle (Count)
system.cpu0.commit.numCommittedDist::mean     2.123427                       # Number of insts commited each cycle (Count)
system.cpu0.commit.numCommittedDist::stdev     3.073080                       # Number of insts commited each cycle (Count)
system.cpu0.commit.numCommittedDist::underflows            0      0.00%      0.00% # Number of insts commited each cycle (Count)
system.cpu0.commit.numCommittedDist::0      102387796     58.72%     58.72% # Number of insts commited each cycle (Count)
system.cpu0.commit.numCommittedDist::1        8708832      4.99%     63.72% # Number of insts commited each cycle (Count)
system.cpu0.commit.numCommittedDist::2       10357104      5.94%     69.66% # Number of insts commited each cycle (Count)
system.cpu0.commit.numCommittedDist::3        7187531      4.12%     73.78% # Number of insts commited each cycle (Count)
system.cpu0.commit.numCommittedDist::4        2614793      1.50%     75.28% # Number of insts commited each cycle (Count)
system.cpu0.commit.numCommittedDist::5        7880373      4.52%     79.80% # Number of insts commited each cycle (Count)
system.cpu0.commit.numCommittedDist::6        5450257      3.13%     82.92% # Number of insts commited each cycle (Count)
system.cpu0.commit.numCommittedDist::7        1518511      0.87%     83.79% # Number of insts commited each cycle (Count)
system.cpu0.commit.numCommittedDist::8       28258972     16.21%    100.00% # Number of insts commited each cycle (Count)
system.cpu0.commit.numCommittedDist::overflows            0      0.00%    100.00% # Number of insts commited each cycle (Count)
system.cpu0.commit.numCommittedDist::min_value            0                       # Number of insts commited each cycle (Count)
system.cpu0.commit.numCommittedDist::max_value            8                       # Number of insts commited each cycle (Count)
system.cpu0.commit.numCommittedDist::total    174364169                       # Number of insts commited each cycle (Count)
system.cpu0.commit.amos                             0                       # Number of atomic instructions committed (Count)
system.cpu0.commit.membars                       4796                       # Number of memory barriers committed (Count)
system.cpu0.commit.functionCalls               336869                       # Number of function calls committed. (Count)
system.cpu0.commit.committedInstType_0::No_OpClass       378205      0.10%      0.10% # Class of committed instruction (Count)
system.cpu0.commit.committedInstType_0::IntAlu    173228635     46.79%     46.89% # Class of committed instruction (Count)
system.cpu0.commit.committedInstType_0::IntMult       434723      0.12%     47.01% # Class of committed instruction (Count)
system.cpu0.commit.committedInstType_0::IntDiv       137296      0.04%     47.04% # Class of committed instruction (Count)
system.cpu0.commit.committedInstType_0::FloatAdd     34066384      9.20%     56.24% # Class of committed instruction (Count)
system.cpu0.commit.committedInstType_0::FloatCmp            0      0.00%     56.24% # Class of committed instruction (Count)
system.cpu0.commit.committedInstType_0::FloatCvt            0      0.00%     56.24% # Class of committed instruction (Count)
system.cpu0.commit.committedInstType_0::FloatMult            0      0.00%     56.24% # Class of committed instruction (Count)
system.cpu0.commit.committedInstType_0::FloatMultAcc            0      0.00%     56.24% # Class of committed instruction (Count)
system.cpu0.commit.committedInstType_0::FloatDiv            0      0.00%     56.24% # Class of committed instruction (Count)
system.cpu0.commit.committedInstType_0::FloatMisc            0      0.00%     56.24% # Class of committed instruction (Count)
system.cpu0.commit.committedInstType_0::FloatSqrt            0      0.00%     56.24% # Class of committed instruction (Count)
system.cpu0.commit.committedInstType_0::SimdAdd          374      0.00%     56.24% # Class of committed instruction (Count)
system.cpu0.commit.committedInstType_0::SimdAddAcc            0      0.00%     56.24% # Class of committed instruction (Count)
system.cpu0.commit.committedInstType_0::SimdAlu       212890      0.06%     56.30% # Class of committed instruction (Count)
system.cpu0.commit.committedInstType_0::SimdCmp            0      0.00%     56.30% # Class of committed instruction (Count)
system.cpu0.commit.committedInstType_0::SimdCvt        50186      0.01%     56.32% # Class of committed instruction (Count)
system.cpu0.commit.committedInstType_0::SimdMisc       158248      0.04%     56.36% # Class of committed instruction (Count)
system.cpu0.commit.committedInstType_0::SimdMult            0      0.00%     56.36% # Class of committed instruction (Count)
system.cpu0.commit.committedInstType_0::SimdMultAcc            0      0.00%     56.36% # Class of committed instruction (Count)
system.cpu0.commit.committedInstType_0::SimdMatMultAcc            0      0.00%     56.36% # Class of committed instruction (Count)
system.cpu0.commit.committedInstType_0::SimdShift          186      0.00%     56.36% # Class of committed instruction (Count)
system.cpu0.commit.committedInstType_0::SimdShiftAcc            0      0.00%     56.36% # Class of committed instruction (Count)
system.cpu0.commit.committedInstType_0::SimdDiv            0      0.00%     56.36% # Class of committed instruction (Count)
system.cpu0.commit.committedInstType_0::SimdSqrt            0      0.00%     56.36% # Class of committed instruction (Count)
system.cpu0.commit.committedInstType_0::SimdFloatAdd     41985753     11.34%     67.70% # Class of committed instruction (Count)
system.cpu0.commit.committedInstType_0::SimdFloatAlu            0      0.00%     67.70% # Class of committed instruction (Count)
system.cpu0.commit.committedInstType_0::SimdFloatCmp            2      0.00%     67.70% # Class of committed instruction (Count)
system.cpu0.commit.committedInstType_0::SimdFloatCvt       110170      0.03%     67.73% # Class of committed instruction (Count)
system.cpu0.commit.committedInstType_0::SimdFloatDiv        56109      0.02%     67.74% # Class of committed instruction (Count)
system.cpu0.commit.committedInstType_0::SimdFloatMisc            0      0.00%     67.74% # Class of committed instruction (Count)
system.cpu0.commit.committedInstType_0::SimdFloatMult     41448642     11.19%     78.94% # Class of committed instruction (Count)
system.cpu0.commit.committedInstType_0::SimdFloatMultAcc            0      0.00%     78.94% # Class of committed instruction (Count)
system.cpu0.commit.committedInstType_0::SimdFloatMatMultAcc            0      0.00%     78.94% # Class of committed instruction (Count)
system.cpu0.commit.committedInstType_0::SimdFloatSqrt         1956      0.00%     78.94% # Class of committed instruction (Count)
system.cpu0.commit.committedInstType_0::SimdReduceAdd            0      0.00%     78.94% # Class of committed instruction (Count)
system.cpu0.commit.committedInstType_0::SimdReduceAlu            0      0.00%     78.94% # Class of committed instruction (Count)
system.cpu0.commit.committedInstType_0::SimdReduceCmp            0      0.00%     78.94% # Class of committed instruction (Count)
system.cpu0.commit.committedInstType_0::SimdFloatReduceAdd            0      0.00%     78.94% # Class of committed instruction (Count)
system.cpu0.commit.committedInstType_0::SimdFloatReduceCmp            0      0.00%     78.94% # Class of committed instruction (Count)
system.cpu0.commit.committedInstType_0::SimdAes            0      0.00%     78.94% # Class of committed instruction (Count)
system.cpu0.commit.committedInstType_0::SimdAesMix            0      0.00%     78.94% # Class of committed instruction (Count)
system.cpu0.commit.committedInstType_0::SimdSha1Hash            0      0.00%     78.94% # Class of committed instruction (Count)
system.cpu0.commit.committedInstType_0::SimdSha1Hash2            0      0.00%     78.94% # Class of committed instruction (Count)
system.cpu0.commit.committedInstType_0::SimdSha256Hash            0      0.00%     78.94% # Class of committed instruction (Count)
system.cpu0.commit.committedInstType_0::SimdSha256Hash2            0      0.00%     78.94% # Class of committed instruction (Count)
system.cpu0.commit.committedInstType_0::SimdShaSigma2            0      0.00%     78.94% # Class of committed instruction (Count)
system.cpu0.commit.committedInstType_0::SimdShaSigma3            0      0.00%     78.94% # Class of committed instruction (Count)
system.cpu0.commit.committedInstType_0::SimdPredAlu            0      0.00%     78.94% # Class of committed instruction (Count)
system.cpu0.commit.committedInstType_0::Matrix            0      0.00%     78.94% # Class of committed instruction (Count)
system.cpu0.commit.committedInstType_0::MatrixMov            0      0.00%     78.94% # Class of committed instruction (Count)
system.cpu0.commit.committedInstType_0::MatrixOP            0      0.00%     78.94% # Class of committed instruction (Count)
system.cpu0.commit.committedInstType_0::MemRead     20491306      5.53%     84.47% # Class of committed instruction (Count)
system.cpu0.commit.committedInstType_0::MemWrite      8579694      2.32%     86.79% # Class of committed instruction (Count)
system.cpu0.commit.committedInstType_0::FloatMemRead     36296319      9.80%     96.59% # Class of committed instruction (Count)
system.cpu0.commit.committedInstType_0::FloatMemWrite     12612487      3.41%    100.00% # Class of committed instruction (Count)
system.cpu0.commit.committedInstType_0::IprAccess            0      0.00%    100.00% # Class of committed instruction (Count)
system.cpu0.commit.committedInstType_0::InstPrefetch            0      0.00%    100.00% # Class of committed instruction (Count)
system.cpu0.commit.committedInstType_0::SimdUnitStrideLoad            0      0.00%    100.00% # Class of committed instruction (Count)
system.cpu0.commit.committedInstType_0::SimdUnitStrideStore            0      0.00%    100.00% # Class of committed instruction (Count)
system.cpu0.commit.committedInstType_0::SimdUnitStrideMaskLoad            0      0.00%    100.00% # Class of committed instruction (Count)
system.cpu0.commit.committedInstType_0::SimdUnitStrideMaskStore            0      0.00%    100.00% # Class of committed instruction (Count)
system.cpu0.commit.committedInstType_0::SimdStridedLoad            0      0.00%    100.00% # Class of committed instruction (Count)
system.cpu0.commit.committedInstType_0::SimdStridedStore            0      0.00%    100.00% # Class of committed instruction (Count)
system.cpu0.commit.committedInstType_0::SimdIndexedLoad            0      0.00%    100.00% # Class of committed instruction (Count)
system.cpu0.commit.committedInstType_0::SimdIndexedStore            0      0.00%    100.00% # Class of committed instruction (Count)
system.cpu0.commit.committedInstType_0::SimdWholeRegisterLoad            0      0.00%    100.00% # Class of committed instruction (Count)
system.cpu0.commit.committedInstType_0::SimdWholeRegisterStore            0      0.00%    100.00% # Class of committed instruction (Count)
system.cpu0.commit.committedInstType_0::SimdUnitStrideFaultOnlyFirstLoad            0      0.00%    100.00% # Class of committed instruction (Count)
system.cpu0.commit.committedInstType_0::SimdUnitStrideSegmentedLoad            0      0.00%    100.00% # Class of committed instruction (Count)
system.cpu0.commit.committedInstType_0::SimdUnitStrideSegmentedStore            0      0.00%    100.00% # Class of committed instruction (Count)
system.cpu0.commit.committedInstType_0::SimdExt            0      0.00%    100.00% # Class of committed instruction (Count)
system.cpu0.commit.committedInstType_0::SimdFloatExt            0      0.00%    100.00% # Class of committed instruction (Count)
system.cpu0.commit.committedInstType_0::SimdConfig            0      0.00%    100.00% # Class of committed instruction (Count)
system.cpu0.commit.committedInstType_0::total    370249565                       # Class of committed instruction (Count)
system.cpu0.commit.commitEligibleSamples     28258972                       # number cycles where commit BW limit reached (Cycle)
system.cpu0.commitStats0.numInsts           240581979                       # Number of instructions committed (thread level) (Count)
system.cpu0.commitStats0.numOps             370249565                       # Number of ops (including micro ops) committed (thread level) (Count)
system.cpu0.commitStats0.numInstsNotNOP     240581979                       # Number of instructions committed excluding NOPs or prefetches (Count)
system.cpu0.commitStats0.numOpsNotNOP       370249565                       # Number of Ops (including micro ops) Simulated (Count)
system.cpu0.commitStats0.cpi                 0.737116                       # CPI: cycles per instruction (thread level) ((Cycle/Count))
system.cpu0.commitStats0.ipc                 1.356638                       # IPC: instructions per cycle (thread level) ((Count/Cycle))
system.cpu0.commitStats0.numMemRefs          77979806                       # Number of memory references committed (Count)
system.cpu0.commitStats0.numFpInsts         205554062                       # Number of float instructions (Count)
system.cpu0.commitStats0.numIntInsts        213235530                       # Number of integer instructions (Count)
system.cpu0.commitStats0.numLoadInsts        56787625                       # Number of load instructions (Count)
system.cpu0.commitStats0.numStoreInsts       21192181                       # Number of store instructions (Count)
system.cpu0.commitStats0.numVecInsts                0                       # Number of vector instructions (Count)
system.cpu0.commitStats0.committedInstType::No_OpClass       378205      0.10%      0.10% # Class of committed instruction. (Count)
system.cpu0.commitStats0.committedInstType::IntAlu    173228635     46.79%     46.89% # Class of committed instruction. (Count)
system.cpu0.commitStats0.committedInstType::IntMult       434723      0.12%     47.01% # Class of committed instruction. (Count)
system.cpu0.commitStats0.committedInstType::IntDiv       137296      0.04%     47.04% # Class of committed instruction. (Count)
system.cpu0.commitStats0.committedInstType::FloatAdd     34066384      9.20%     56.24% # Class of committed instruction. (Count)
system.cpu0.commitStats0.committedInstType::FloatCmp            0      0.00%     56.24% # Class of committed instruction. (Count)
system.cpu0.commitStats0.committedInstType::FloatCvt            0      0.00%     56.24% # Class of committed instruction. (Count)
system.cpu0.commitStats0.committedInstType::FloatMult            0      0.00%     56.24% # Class of committed instruction. (Count)
system.cpu0.commitStats0.committedInstType::FloatMultAcc            0      0.00%     56.24% # Class of committed instruction. (Count)
system.cpu0.commitStats0.committedInstType::FloatDiv            0      0.00%     56.24% # Class of committed instruction. (Count)
system.cpu0.commitStats0.committedInstType::FloatMisc            0      0.00%     56.24% # Class of committed instruction. (Count)
system.cpu0.commitStats0.committedInstType::FloatSqrt            0      0.00%     56.24% # Class of committed instruction. (Count)
system.cpu0.commitStats0.committedInstType::SimdAdd          374      0.00%     56.24% # Class of committed instruction. (Count)
system.cpu0.commitStats0.committedInstType::SimdAddAcc            0      0.00%     56.24% # Class of committed instruction. (Count)
system.cpu0.commitStats0.committedInstType::SimdAlu       212890      0.06%     56.30% # Class of committed instruction. (Count)
system.cpu0.commitStats0.committedInstType::SimdCmp            0      0.00%     56.30% # Class of committed instruction. (Count)
system.cpu0.commitStats0.committedInstType::SimdCvt        50186      0.01%     56.32% # Class of committed instruction. (Count)
system.cpu0.commitStats0.committedInstType::SimdMisc       158248      0.04%     56.36% # Class of committed instruction. (Count)
system.cpu0.commitStats0.committedInstType::SimdMult            0      0.00%     56.36% # Class of committed instruction. (Count)
system.cpu0.commitStats0.committedInstType::SimdMultAcc            0      0.00%     56.36% # Class of committed instruction. (Count)
system.cpu0.commitStats0.committedInstType::SimdMatMultAcc            0      0.00%     56.36% # Class of committed instruction. (Count)
system.cpu0.commitStats0.committedInstType::SimdShift          186      0.00%     56.36% # Class of committed instruction. (Count)
system.cpu0.commitStats0.committedInstType::SimdShiftAcc            0      0.00%     56.36% # Class of committed instruction. (Count)
system.cpu0.commitStats0.committedInstType::SimdDiv            0      0.00%     56.36% # Class of committed instruction. (Count)
system.cpu0.commitStats0.committedInstType::SimdSqrt            0      0.00%     56.36% # Class of committed instruction. (Count)
system.cpu0.commitStats0.committedInstType::SimdFloatAdd     41985753     11.34%     67.70% # Class of committed instruction. (Count)
system.cpu0.commitStats0.committedInstType::SimdFloatAlu            0      0.00%     67.70% # Class of committed instruction. (Count)
system.cpu0.commitStats0.committedInstType::SimdFloatCmp            2      0.00%     67.70% # Class of committed instruction. (Count)
system.cpu0.commitStats0.committedInstType::SimdFloatCvt       110170      0.03%     67.73% # Class of committed instruction. (Count)
system.cpu0.commitStats0.committedInstType::SimdFloatDiv        56109      0.02%     67.74% # Class of committed instruction. (Count)
system.cpu0.commitStats0.committedInstType::SimdFloatMisc            0      0.00%     67.74% # Class of committed instruction. (Count)
system.cpu0.commitStats0.committedInstType::SimdFloatMult     41448642     11.19%     78.94% # Class of committed instruction. (Count)
system.cpu0.commitStats0.committedInstType::SimdFloatMultAcc            0      0.00%     78.94% # Class of committed instruction. (Count)
system.cpu0.commitStats0.committedInstType::SimdFloatMatMultAcc            0      0.00%     78.94% # Class of committed instruction. (Count)
system.cpu0.commitStats0.committedInstType::SimdFloatSqrt         1956      0.00%     78.94% # Class of committed instruction. (Count)
system.cpu0.commitStats0.committedInstType::SimdReduceAdd            0      0.00%     78.94% # Class of committed instruction. (Count)
system.cpu0.commitStats0.committedInstType::SimdReduceAlu            0      0.00%     78.94% # Class of committed instruction. (Count)
system.cpu0.commitStats0.committedInstType::SimdReduceCmp            0      0.00%     78.94% # Class of committed instruction. (Count)
system.cpu0.commitStats0.committedInstType::SimdFloatReduceAdd            0      0.00%     78.94% # Class of committed instruction. (Count)
system.cpu0.commitStats0.committedInstType::SimdFloatReduceCmp            0      0.00%     78.94% # Class of committed instruction. (Count)
system.cpu0.commitStats0.committedInstType::SimdAes            0      0.00%     78.94% # Class of committed instruction. (Count)
system.cpu0.commitStats0.committedInstType::SimdAesMix            0      0.00%     78.94% # Class of committed instruction. (Count)
system.cpu0.commitStats0.committedInstType::SimdSha1Hash            0      0.00%     78.94% # Class of committed instruction. (Count)
system.cpu0.commitStats0.committedInstType::SimdSha1Hash2            0      0.00%     78.94% # Class of committed instruction. (Count)
system.cpu0.commitStats0.committedInstType::SimdSha256Hash            0      0.00%     78.94% # Class of committed instruction. (Count)
system.cpu0.commitStats0.committedInstType::SimdSha256Hash2            0      0.00%     78.94% # Class of committed instruction. (Count)
system.cpu0.commitStats0.committedInstType::SimdShaSigma2            0      0.00%     78.94% # Class of committed instruction. (Count)
system.cpu0.commitStats0.committedInstType::SimdShaSigma3            0      0.00%     78.94% # Class of committed instruction. (Count)
system.cpu0.commitStats0.committedInstType::SimdPredAlu            0      0.00%     78.94% # Class of committed instruction. (Count)
system.cpu0.commitStats0.committedInstType::Matrix            0      0.00%     78.94% # Class of committed instruction. (Count)
system.cpu0.commitStats0.committedInstType::MatrixMov            0      0.00%     78.94% # Class of committed instruction. (Count)
system.cpu0.commitStats0.committedInstType::MatrixOP            0      0.00%     78.94% # Class of committed instruction. (Count)
system.cpu0.commitStats0.committedInstType::MemRead     20491306      5.53%     84.47% # Class of committed instruction. (Count)
system.cpu0.commitStats0.committedInstType::MemWrite      8579694      2.32%     86.79% # Class of committed instruction. (Count)
system.cpu0.commitStats0.committedInstType::FloatMemRead     36296319      9.80%     96.59% # Class of committed instruction. (Count)
system.cpu0.commitStats0.committedInstType::FloatMemWrite     12612487      3.41%    100.00% # Class of committed instruction. (Count)
system.cpu0.commitStats0.committedInstType::IprAccess            0      0.00%    100.00% # Class of committed instruction. (Count)
system.cpu0.commitStats0.committedInstType::InstPrefetch            0      0.00%    100.00% # Class of committed instruction. (Count)
system.cpu0.commitStats0.committedInstType::SimdUnitStrideLoad            0      0.00%    100.00% # Class of committed instruction. (Count)
system.cpu0.commitStats0.committedInstType::SimdUnitStrideStore            0      0.00%    100.00% # Class of committed instruction. (Count)
system.cpu0.commitStats0.committedInstType::SimdUnitStrideMaskLoad            0      0.00%    100.00% # Class of committed instruction. (Count)
system.cpu0.commitStats0.committedInstType::SimdUnitStrideMaskStore            0      0.00%    100.00% # Class of committed instruction. (Count)
system.cpu0.commitStats0.committedInstType::SimdStridedLoad            0      0.00%    100.00% # Class of committed instruction. (Count)
system.cpu0.commitStats0.committedInstType::SimdStridedStore            0      0.00%    100.00% # Class of committed instruction. (Count)
system.cpu0.commitStats0.committedInstType::SimdIndexedLoad            0      0.00%    100.00% # Class of committed instruction. (Count)
system.cpu0.commitStats0.committedInstType::SimdIndexedStore            0      0.00%    100.00% # Class of committed instruction. (Count)
system.cpu0.commitStats0.committedInstType::SimdWholeRegisterLoad            0      0.00%    100.00% # Class of committed instruction. (Count)
system.cpu0.commitStats0.committedInstType::SimdWholeRegisterStore            0      0.00%    100.00% # Class of committed instruction. (Count)
system.cpu0.commitStats0.committedInstType::SimdUnitStrideFaultOnlyFirstLoad            0      0.00%    100.00% # Class of committed instruction. (Count)
system.cpu0.commitStats0.committedInstType::SimdUnitStrideSegmentedLoad            0      0.00%    100.00% # Class of committed instruction. (Count)
system.cpu0.commitStats0.committedInstType::SimdUnitStrideSegmentedStore            0      0.00%    100.00% # Class of committed instruction. (Count)
system.cpu0.commitStats0.committedInstType::SimdExt            0      0.00%    100.00% # Class of committed instruction. (Count)
system.cpu0.commitStats0.committedInstType::SimdFloatExt            0      0.00%    100.00% # Class of committed instruction. (Count)
system.cpu0.commitStats0.committedInstType::SimdConfig            0      0.00%    100.00% # Class of committed instruction. (Count)
system.cpu0.commitStats0.committedInstType::total    370249565                       # Class of committed instruction. (Count)
system.cpu0.commitStats0.committedControl::IsControl     19027153                       # Class of control type instructions committed (Count)
system.cpu0.commitStats0.committedControl::IsDirectControl     18681004                       # Class of control type instructions committed (Count)
system.cpu0.commitStats0.committedControl::IsIndirectControl       346149                       # Class of control type instructions committed (Count)
system.cpu0.commitStats0.committedControl::IsCondControl     17992747                       # Class of control type instructions committed (Count)
system.cpu0.commitStats0.committedControl::IsUncondControl      1034406                       # Class of control type instructions committed (Count)
system.cpu0.commitStats0.committedControl::IsCall       336869                       # Class of control type instructions committed (Count)
system.cpu0.commitStats0.committedControl::IsReturn       336864                       # Class of control type instructions committed (Count)
system.cpu0.dcache.demandHits::cpu0.data     74851498                       # number of demand (read+write) hits (Count)
system.cpu0.dcache.demandHits::total         74851498                       # number of demand (read+write) hits (Count)
system.cpu0.dcache.overallHits::cpu0.data     74882860                       # number of overall hits (Count)
system.cpu0.dcache.overallHits::total        74882860                       # number of overall hits (Count)
system.cpu0.dcache.demandMisses::cpu0.data      3040859                       # number of demand (read+write) misses (Count)
system.cpu0.dcache.demandMisses::total        3040859                       # number of demand (read+write) misses (Count)
system.cpu0.dcache.overallMisses::cpu0.data      3041943                       # number of overall misses (Count)
system.cpu0.dcache.overallMisses::total       3041943                       # number of overall misses (Count)
system.cpu0.dcache.demandMissLatency::cpu0.data  99221532254                       # number of demand (read+write) miss ticks (Tick)
system.cpu0.dcache.demandMissLatency::total  99221532254                       # number of demand (read+write) miss ticks (Tick)
system.cpu0.dcache.overallMissLatency::cpu0.data  99221532254                       # number of overall miss ticks (Tick)
system.cpu0.dcache.overallMissLatency::total  99221532254                       # number of overall miss ticks (Tick)
system.cpu0.dcache.demandAccesses::cpu0.data     77892357                       # number of demand (read+write) accesses (Count)
system.cpu0.dcache.demandAccesses::total     77892357                       # number of demand (read+write) accesses (Count)
system.cpu0.dcache.overallAccesses::cpu0.data     77924803                       # number of overall (read+write) accesses (Count)
system.cpu0.dcache.overallAccesses::total     77924803                       # number of overall (read+write) accesses (Count)
system.cpu0.dcache.demandMissRate::cpu0.data     0.039039                       # miss rate for demand accesses (Ratio)
system.cpu0.dcache.demandMissRate::total     0.039039                       # miss rate for demand accesses (Ratio)
system.cpu0.dcache.overallMissRate::cpu0.data     0.039037                       # miss rate for overall accesses (Ratio)
system.cpu0.dcache.overallMissRate::total     0.039037                       # miss rate for overall accesses (Ratio)
system.cpu0.dcache.demandAvgMissLatency::cpu0.data 32629.441962                       # average overall miss latency in ticks ((Tick/Count))
system.cpu0.dcache.demandAvgMissLatency::total 32629.441962                       # average overall miss latency in ticks ((Tick/Count))
system.cpu0.dcache.overallAvgMissLatency::cpu0.data 32617.814421                       # average overall miss latency ((Tick/Count))
system.cpu0.dcache.overallAvgMissLatency::total 32617.814421                       # average overall miss latency ((Tick/Count))
system.cpu0.dcache.blockedCycles::no_mshrs       168172                       # number of cycles access was blocked (Cycle)
system.cpu0.dcache.blockedCycles::no_targets          204                       # number of cycles access was blocked (Cycle)
system.cpu0.dcache.blockedCauses::no_mshrs        12763                       # number of times access was blocked (Count)
system.cpu0.dcache.blockedCauses::no_targets            4                       # number of times access was blocked (Count)
system.cpu0.dcache.avgBlocked::no_mshrs     13.176526                       # average number of cycles each access was blocked ((Cycle/Count))
system.cpu0.dcache.avgBlocked::no_targets           51                       # average number of cycles each access was blocked ((Cycle/Count))
[...]
system.mem_ctrls.dram.perBankWrBursts::11        15167                       # Per bank write bursts (Count)
system.mem_ctrls.dram.perBankWrBursts::12        15353                       # Per bank write bursts (Count)
system.mem_ctrls.dram.perBankWrBursts::13        16389                       # Per bank write bursts (Count)
system.mem_ctrls.dram.perBankWrBursts::14        15582                       # Per bank write bursts (Count)
system.mem_ctrls.dram.perBankWrBursts::15        15921                       # Per bank write bursts (Count)
system.mem_ctrls.dram.totQLat              4967368962                       # Total ticks spent queuing (Tick)
system.mem_ctrls.dram.totBusLat            2232655000                       # Total ticks spent in databus transfers (Tick)
system.mem_ctrls.dram.totMemAccLat        13339825212                       # Total ticks spent from burst creation until serviced by the DRAM (Tick)
system.mem_ctrls.dram.avgQLat                11124.35                       # Average queueing delay per DRAM burst ((Tick/Count))
system.mem_ctrls.dram.avgBusLat               5000.00                       # Average bus latency per DRAM burst ((Tick/Count))
system.mem_ctrls.dram.avgMemAccLat           29874.35                       # Average memory access latency per DRAM burst ((Tick/Count))
system.mem_ctrls.dram.readRowHits              394415                       # Number of row buffer hits during reads (Count)
system.mem_ctrls.dram.writeRowHits             202075                       # Number of row buffer hits during writes (Count)
system.mem_ctrls.dram.readRowHitRate            88.33                       # Row buffer hit rate for reads (Ratio)
system.mem_ctrls.dram.writeRowHitRate           82.31                       # Row buffer hit rate for writes (Ratio)
system.mem_ctrls.dram.bytesPerActivate::samples        95546                       # Bytes accessed per row activation (Byte)
system.mem_ctrls.dram.bytesPerActivate::mean   463.548197                       # Bytes accessed per row activation (Byte)
system.mem_ctrls.dram.bytesPerActivate::gmean   304.079727                       # Bytes accessed per row activation (Byte)
system.mem_ctrls.dram.bytesPerActivate::stdev   358.536673                       # Bytes accessed per row activation (Byte)
system.mem_ctrls.dram.bytesPerActivate::0-127        20086     21.02%     21.02% # Bytes accessed per row activation (Byte)
system.mem_ctrls.dram.bytesPerActivate::128-255        14662     15.35%     36.37% # Bytes accessed per row activation (Byte)
system.mem_ctrls.dram.bytesPerActivate::256-383        11264     11.79%     48.16% # Bytes accessed per row activation (Byte)
system.mem_ctrls.dram.bytesPerActivate::384-511         8220      8.60%     56.76% # Bytes accessed per row activation (Byte)
system.mem_ctrls.dram.bytesPerActivate::512-639        10876     11.38%     68.14% # Bytes accessed per row activation (Byte)
system.mem_ctrls.dram.bytesPerActivate::640-767         4577      4.79%     72.93% # Bytes accessed per row activation (Byte)
system.mem_ctrls.dram.bytesPerActivate::768-895         3767      3.94%     76.88% # Bytes accessed per row activation (Byte)
system.mem_ctrls.dram.bytesPerActivate::896-1023         3625      3.79%     80.67% # Bytes accessed per row activation (Byte)
system.mem_ctrls.dram.bytesPerActivate::1024-1151        18469     19.33%    100.00% # Bytes accessed per row activation (Byte)
system.mem_ctrls.dram.bytesPerActivate::total        95546                       # Bytes accessed per row activation (Byte)
system.mem_ctrls.dram.dramBytesRead          28577984                       # Total bytes read (Byte)
system.mem_ctrls.dram.dramBytesWritten       15712640                       # Total bytes written (Byte)
system.mem_ctrls.dram.avgRdBW              436.260619                       # Average DRAM read bandwidth in MiBytes/s ((Byte/Second))
system.mem_ctrls.dram.avgWrBW              239.863178                       # Average DRAM write bandwidth in MiBytes/s ((Byte/Second))
system.mem_ctrls.dram.peakBW                 12800.00                       # Theoretical peak bandwidth in MiByte/s ((Byte/Second))
system.mem_ctrls.dram.busUtil                    5.28                       # Data bus utilization in percentage (Ratio)
system.mem_ctrls.dram.busUtilRead                3.41                       # Data bus utilization in percentage for reads (Ratio)
system.mem_ctrls.dram.busUtilWrite               1.87                       # Data bus utilization in percentage for writes (Ratio)
system.mem_ctrls.dram.pageHitRate               86.19                       # Row buffer hit rate, read and write combined (Ratio)
system.mem_ctrls.dram.power_state.pwrStateResidencyTicks::UNDEFINED  65506678272                       # Cumulative time (in ticks) in various power states (Tick)
system.mem_ctrls.dram.rank0.actEnergy       346147200                       # Energy for activate commands per rank (pJ) (Joule)
system.mem_ctrls.dram.rank0.preEnergy       183966420                       # Energy for precharge commands per rank (pJ) (Joule)
system.mem_ctrls.dram.rank0.readEnergy     1595725740                       # Energy for read commands per rank (pJ) (Joule)
system.mem_ctrls.dram.rank0.writeEnergy     642936960                       # Energy for write commands per rank (pJ) (Joule)
system.mem_ctrls.dram.rank0.refreshEnergy 5170966320.000001                       # Energy for refresh commands per rank (pJ) (Joule)
system.mem_ctrls.dram.rank0.actBackEnergy  11950154880                       # Energy for active background per rank (pJ) (Joule)
system.mem_ctrls.dram.rank0.preBackEnergy  15091276320                       # Energy for precharge background per rank (pJ) (Joule)
system.mem_ctrls.dram.rank0.actPowerDownEnergy            0                       # Energy for active power-down per rank (pJ) (Joule)
system.mem_ctrls.dram.rank0.prePowerDownEnergy            0                       # Energy for precharge power-down per rank (pJ) (Joule)
system.mem_ctrls.dram.rank0.selfRefreshEnergy            0                       # Energy for self refresh per rank (pJ) (Joule)
system.mem_ctrls.dram.rank0.totalEnergy   34981173840                       # Total energy per rank (pJ) (Joule)
system.mem_ctrls.dram.rank0.averagePower   534.009276                       # Core power per rank (mW) (Watt)
system.mem_ctrls.dram.rank0.totalIdleTime            0                       # Total Idle time Per DRAM Rank (Tick)
system.mem_ctrls.dram.rank0.pwrStateTime::IDLE  39020603452                       # Time in different power states (Tick)
system.mem_ctrls.dram.rank0.pwrStateTime::REF   2187380000                       # Time in different power states (Tick)
system.mem_ctrls.dram.rank0.pwrStateTime::SREF            0                       # Time in different power states (Tick)
system.mem_ctrls.dram.rank0.pwrStateTime::PRE_PDN            0                       # Time in different power states (Tick)
system.mem_ctrls.dram.rank0.pwrStateTime::ACT  24298694820                       # Time in different power states (Tick)
system.mem_ctrls.dram.rank0.pwrStateTime::ACT_PDN            0                       # Time in different power states (Tick)
system.mem_ctrls.dram.rank1.actEnergy       336086940                       # Energy for activate commands per rank (pJ) (Joule)
system.mem_ctrls.dram.rank1.preEnergy       178630650                       # Energy for precharge commands per rank (pJ) (Joule)
system.mem_ctrls.dram.rank1.readEnergy     1592505600                       # Energy for read commands per rank (pJ) (Joule)
system.mem_ctrls.dram.rank1.writeEnergy     638625240                       # Energy for write commands per rank (pJ) (Joule)
system.mem_ctrls.dram.rank1.refreshEnergy 5170966320.000001                       # Energy for refresh commands per rank (pJ) (Joule)
system.mem_ctrls.dram.rank1.actBackEnergy  12203543250                       # Energy for active background per rank (pJ) (Joule)
system.mem_ctrls.dram.rank1.preBackEnergy  14877896640                       # Energy for precharge background per rank (pJ) (Joule)
system.mem_ctrls.dram.rank1.actPowerDownEnergy            0                       # Energy for active power-down per rank (pJ) (Joule)
system.mem_ctrls.dram.rank1.prePowerDownEnergy            0                       # Energy for precharge power-down per rank (pJ) (Joule)
system.mem_ctrls.dram.rank1.selfRefreshEnergy            0                       # Energy for self refresh per rank (pJ) (Joule)
system.mem_ctrls.dram.rank1.totalEnergy   34998254640                       # Total energy per rank (pJ) (Joule)
system.mem_ctrls.dram.rank1.averagePower   534.270025                       # Core power per rank (mW) (Watt)
system.mem_ctrls.dram.rank1.totalIdleTime            0                       # Total Idle time Per DRAM Rank (Tick)
system.mem_ctrls.dram.rank1.pwrStateTime::IDLE  38464357804                       # Time in different power states (Tick)
system.mem_ctrls.dram.rank1.pwrStateTime::REF   2187380000                       # Time in different power states (Tick)
system.mem_ctrls.dram.rank1.pwrStateTime::SREF            0                       # Time in different power states (Tick)
system.mem_ctrls.dram.rank1.pwrStateTime::PRE_PDN            0                       # Time in different power states (Tick)
system.mem_ctrls.dram.rank1.pwrStateTime::ACT  24854940468                       # Time in different power states (Tick)
system.mem_ctrls.dram.rank1.pwrStateTime::ACT_PDN            0                       # Time in different power states (Tick)
system.mem_ctrls.power_state.pwrStateResidencyTicks::UNDEFINED  65506678272                       # Cumulative time (in ticks) in various power states (Tick)
system.membus.transDist::ReadResp              184202                       # Transaction distribution (Count)
system.membus.transDist::WritebackDirty        245538                       # Transaction distribution (Count)
system.membus.transDist::CleanEvict             92407                       # Transaction distribution (Count)
system.membus.transDist::UpgradeReq               487                       # Transaction distribution (Count)
system.membus.transDist::ReadExReq             262466                       # Transaction distribution (Count)
system.membus.transDist::ReadExResp            262340                       # Transaction distribution (Count)
system.membus.transDist::ReadSharedReq         184202                       # Transaction distribution (Count)
system.membus.pktCount_system.l3.mem_side_port::system.mem_ctrls.port      1231642                       # Packet count per connected requestor and responder (Count)
system.membus.pktCount_system.l3.mem_side_port::total      1231642                       # Packet count per connected requestor and responder (Count)
system.membus.pktCount::total                 1231642                       # Packet count per connected requestor and responder (Count)
system.membus.pktSize_system.l3.mem_side_port::system.mem_ctrls.port     44293120                       # Cumulative packet size per connected requestor and responder (Byte)
system.membus.pktSize_system.l3.mem_side_port::total     44293120                       # Cumulative packet size per connected requestor and responder (Byte)
system.membus.pktSize::total                 44293120                       # Cumulative packet size per connected requestor and responder (Byte)
system.membus.snoops                              574                       # Total snoops (Count)
system.membus.snoopTraffic                          0                       # Total snoop traffic (Byte)
system.membus.snoopFanout::samples             447155                       # Request fanout histogram (Count)
system.membus.snoopFanout::mean                     0                       # Request fanout histogram (Count)
system.membus.snoopFanout::stdev                    0                       # Request fanout histogram (Count)
system.membus.snoopFanout::underflows               0      0.00%      0.00% # Request fanout histogram (Count)
system.membus.snoopFanout::0                   447155    100.00%    100.00% # Request fanout histogram (Count)
system.membus.snoopFanout::1                        0      0.00%    100.00% # Request fanout histogram (Count)
system.membus.snoopFanout::overflows                0      0.00%    100.00% # Request fanout histogram (Count)
system.membus.snoopFanout::min_value                0                       # Request fanout histogram (Count)
system.membus.snoopFanout::max_value                0                       # Request fanout histogram (Count)
system.membus.snoopFanout::total               447155                       # Request fanout histogram (Count)
system.membus.power_state.pwrStateResidencyTicks::UNDEFINED  65506678272                       # Cumulative time (in ticks) in various power states (Tick)
system.membus.reqLayer4.occupancy          2187458066                       # Layer occupancy (ticks) (Tick)
system.membus.reqLayer4.utilization               0.0                       # Layer utilization (Ratio)
system.membus.respLayer1.occupancy         2362827288                       # Layer occupancy (ticks) (Tick)
system.membus.respLayer1.utilization              0.0                       # Layer utilization (Ratio)
system.membus.snoop_filter.totRequests         785100                       # Total number of requests made to the snoop filter. (Count)
system.membus.snoop_filter.hitSingleRequests       338767                       # Number of requests hitting in the snoop filter with a single holder of the requested data. (Count)
system.membus.snoop_filter.hitMultiRequests            0                       # Number of requests hitting in the snoop filter with multiple (>1) holders of the requested data. (Count)
system.membus.snoop_filter.totSnoops                0                       # Total number of snoops made to the snoop filter. (Count)
system.membus.snoop_filter.hitSingleSnoops            0                       # Number of snoops hitting in the snoop filter with a single holder of the requested data. (Count)
system.membus.snoop_filter.hitMultiSnoops            0                       # Number of snoops hitting in the snoop filter with multiple (>1) holders of the requested data. (Count)
system.tol3bus.transDist::ReadResp             260432                       # Transaction distribution (Count)
system.tol3bus.transDist::WritebackDirty       613868                       # Transaction distribution (Count)
system.tol3bus.transDist::CleanEvict           245744                       # Transaction distribution (Count)
system.tol3bus.transDist::UpgradeReq              870                       # Transaction distribution (Count)
system.tol3bus.transDist::UpgradeResp             870                       # Transaction distribution (Count)
system.tol3bus.transDist::ReadExReq            272707                       # Transaction distribution (Count)
system.tol3bus.transDist::ReadExResp           272707                       # Transaction distribution (Count)
system.tol3bus.transDist::ReadSharedReq        260432                       # Transaction distribution (Count)
system.tol3bus.pktCount_system.cpu0.l2cache.mem_side_port::system.l3.cpu_side_port      1273880                       # Packet count per connected requestor and responder (Count)
system.tol3bus.pktCount_system.cpu1.l2cache.mem_side_port::system.l3.cpu_side_port       241125                       # Packet count per connected requestor and responder (Count)
system.tol3bus.pktCount::total                1515005                       # Packet count per connected requestor and responder (Count)
system.tol3bus.pktSize_system.cpu0.l2cache.mem_side_port::system.l3.cpu_side_port     47362432                       # Cumulative packet size per connected requestor and responder (Byte)
system.tol3bus.pktSize_system.cpu1.l2cache.mem_side_port::system.l3.cpu_side_port      9122240                       # Cumulative packet size per connected requestor and responder (Byte)
system.tol3bus.pktSize::total                56484672                       # Cumulative packet size per connected requestor and responder (Byte)
system.tol3bus.snoops                          412625                       # Total snoops (Count)
system.tol3bus.snoopTraffic                  16923776                       # Total snoop traffic (Byte)
system.tol3bus.snoopFanout::samples            927290                       # Request fanout histogram (Count)
system.tol3bus.snoopFanout::mean             0.089990                       # Request fanout histogram (Count)
system.tol3bus.snoopFanout::stdev            0.289286                       # Request fanout histogram (Count)
system.tol3bus.snoopFanout::underflows              0      0.00%      0.00% # Request fanout histogram (Count)
system.tol3bus.snoopFanout::0                  844675     91.09%     91.09% # Request fanout histogram (Count)
system.tol3bus.snoopFanout::1                   81783      8.82%     99.91% # Request fanout histogram (Count)
system.tol3bus.snoopFanout::2                     832      0.09%    100.00% # Request fanout histogram (Count)
system.tol3bus.snoopFanout::overflows               0      0.00%    100.00% # Request fanout histogram (Count)
system.tol3bus.snoopFanout::min_value               0                       # Request fanout histogram (Count)
system.tol3bus.snoopFanout::max_value               2                       # Request fanout histogram (Count)
system.tol3bus.snoopFanout::total              927290                       # Request fanout histogram (Count)
system.tol3bus.power_state.pwrStateResidencyTicks::UNDEFINED  65506678272                       # Cumulative time (in ticks) in various power states (Tick)
system.tol3bus.reqLayer0.occupancy          620110425                       # Layer occupancy (ticks) (Tick)
system.tol3bus.reqLayer0.utilization              0.0                       # Layer utilization (Ratio)
system.tol3bus.respLayer0.occupancy         470072593                       # Layer occupancy (ticks) (Tick)
system.tol3bus.respLayer0.utilization             0.0                       # Layer utilization (Ratio)
system.tol3bus.respLayer1.occupancy         101238054                       # Layer occupancy (ticks) (Tick)
system.tol3bus.respLayer1.utilization             0.0                       # Layer utilization (Ratio)
system.tol3bus.snoop_filter.totRequests       1000340                       # Total number of requests made to the snoop filter. (Count)
system.tol3bus.snoop_filter.hitSingleRequests       484705                       # Number of requests hitting in the snoop filter with a single holder of the requested data. (Count)
system.tol3bus.snoop_filter.hitMultiRequests         3789                       # Number of requests hitting in the snoop filter with multiple (>1) holders of the requested data. (Count)
system.tol3bus.snoop_filter.totSnoops           60463                       # Total number of snoops made to the snoop filter. (Count)
system.tol3bus.snoop_filter.hitSingleSnoops        59631                       # Number of snoops hitting in the snoop filter with a single holder of the requested data. (Count)
system.tol3bus.snoop_filter.hitMultiSnoops          832                       # Number of snoops hitting in the snoop filter with multiple (>1) holders of the requested data. (Count)
system.voltage_domain.voltage                       1                       # Voltage in Volts (Volt)
system.workload.inst.arm                            0                       # number of arm instructions executed (Count)
system.workload.inst.quiesce                        0                       # number of quiesce instructions executed (Count)

---------- End Simulation Statistics   ----------
